
Version,
  7.2;                                    !- Version Identifier

ProgramControl,
  1;                                      !- Number of Threads Allowed

GlobalGeometryRules,
  UpperLeftCorner,                        !- Starting Vertex Position
  Counterclockwise,                       !- Vertex Entry Direction
  Relative,                               !- Coordinate System
  Relative,                               !- Daylighting Reference Point Coordinate System
  Relative;                               !- Rectangular Surface Coordinate System

ScheduleTypeLimits,
  ActivityLevel,                          !- Name
  0,                                      !- Lower Limit Value {BasedOnField A3}
  ,                                       !- Upper Limit Value {BasedOnField A3}
  Continuous,                             !- Numeric Type
  activitylevel;                          !- Unit Type

ScheduleTypeLimits,
  OnOff,                                  !- Name
  0,                                      !- Lower Limit Value {BasedOnField A3}
  1,                                      !- Upper Limit Value {BasedOnField A3}
  Discrete,                               !- Numeric Type
  availability;                           !- Unit Type

ScheduleTypeLimits,
  On/Off,                                 !- Name
  0,                                      !- Lower Limit Value {BasedOnField A3}
  1,                                      !- Upper Limit Value {BasedOnField A3}
  DISCRETE;                               !- Numeric Type

ScheduleTypeLimits,
  Fractional,                             !- Name
  0,                                      !- Lower Limit Value {BasedOnField A3}
  1,                                      !- Upper Limit Value {BasedOnField A3}
  Continuous;                             !- Numeric Type

ScheduleTypeLimits,
  Temperature 1,                          !- Name
  ,                                       !- Lower Limit Value {BasedOnField A3}
  ,                                       !- Upper Limit Value {BasedOnField A3}
  Continuous,                             !- Numeric Type
  temperature;                            !- Unit Type

ScheduleTypeLimits,
  Control Type,                           !- Name
  0,                                      !- Lower Limit Value {BasedOnField A3}
  4,                                      !- Upper Limit Value {BasedOnField A3}
  DISCRETE;                               !- Numeric Type

ScheduleTypeLimits,
  Temperature,                            !- Name
  -60,                                    !- Lower Limit Value {BasedOnField A3}
  200,                                    !- Upper Limit Value {BasedOnField A3}
  CONTINUOUS;                             !- Numeric Type

ScheduleTypeLimits,
  Fraction,                               !- Name
  0,                                      !- Lower Limit Value {BasedOnField A3}
  1,                                      !- Upper Limit Value {BasedOnField A3}
  CONTINUOUS;                             !- Numeric Type

ScheduleTypeLimits,
  Any Number;                             !- Name

ScheduleTypeLimits,
  Temperature 2,                          !- Name
  ,                                       !- Lower Limit Value {BasedOnField A3}
  ,                                       !- Upper Limit Value {BasedOnField A3}
  Continuous,                             !- Numeric Type
  temperature;                            !- Unit Type

Schedule:Day:Interval,
  Medium Office_Infil_Quarter_On Winter Design Day, !- Name
  Fraction,                               !- Schedule Type Limits Name
  No,                                     !- Interpolate to Timestep
  06:00,                                  !- Time 1 {hh:mm}
  1,                                      !- Value Until Time 1
  18:00,                                  !- Time 2 {hh:mm}
  0.25,                                   !- Value Until Time 2
  24:00,                                  !- Time 3 {hh:mm}
  1;                                      !- Value Until Time 3

Schedule:Day:Interval,
  Medium Office_HtgSetp Rule 3 Day Schedule, !- Name
  Temperature,                            !- Schedule Type Limits Name
  No,                                     !- Interpolate to Timestep
  06:00,                                  !- Time 1 {hh:mm}
  15.6,                                   !- Value Until Time 1
  22:00,                                  !- Time 2 {hh:mm}
  21,                                     !- Value Until Time 2
  24:00,                                  !- Time 3 {hh:mm}
  15.6;                                   !- Value Until Time 3

Schedule:Day:Interval,
  Medium Office_Clothing Rule 2 Day Schedule, !- Name
  Any Number,                             !- Schedule Type Limits Name
  No,                                     !- Interpolate to Timestep
  24:00,                                  !- Time 1 {hh:mm}
  0.5;                                    !- Value Until Time 1

Schedule:Day:Interval,
  Medium Office_Bldg_Equip Default Schedule, !- Name
  Fraction,                               !- Schedule Type Limits Name
  No,                                     !- Interpolate to Timestep
  24:00,                                  !- Time 1 {hh:mm}
  0;                                      !- Value Until Time 1

Schedule:Day:Interval,
  Medium Office_Bldg_Equip Winter Design Day, !- Name
  Fraction,                               !- Schedule Type Limits Name
  No,                                     !- Interpolate to Timestep
  24:00,                                  !- Time 1 {hh:mm}
  0;                                      !- Value Until Time 1

Schedule:Day:Interval,
  Medium Office_BLDG_ELEVATORS Rule 3 Day Schedule, !- Name
  Fraction,                               !- Schedule Type Limits Name
  No,                                     !- Interpolate to Timestep
  07:00,                                  !- Time 1 {hh:mm}
  0,                                      !- Value Until Time 1
  08:00,                                  !- Time 2 {hh:mm}
  0.35,                                   !- Value Until Time 2
  09:00,                                  !- Time 3 {hh:mm}
  0.69,                                   !- Value Until Time 3
  10:00,                                  !- Time 4 {hh:mm}
  0.43,                                   !- Value Until Time 4
  11:00,                                  !- Time 5 {hh:mm}
  0.37,                                   !- Value Until Time 5
  12:00,                                  !- Time 6 {hh:mm}
  0.43,                                   !- Value Until Time 6
  13:00,                                  !- Time 7 {hh:mm}
  0.58,                                   !- Value Until Time 7
  14:00,                                  !- Time 8 {hh:mm}
  0.48,                                   !- Value Until Time 8
  15:00,                                  !- Time 9 {hh:mm}
  0.37,                                   !- Value Until Time 9
  16:00,                                  !- Time 10 {hh:mm}
  0.37,                                   !- Value Until Time 10
  17:00,                                  !- Time 11 {hh:mm}
  0.46,                                   !- Value Until Time 11
  18:00,                                  !- Time 12 {hh:mm}
  0.62,                                   !- Value Until Time 12
  19:00,                                  !- Time 13 {hh:mm}
  0.12,                                   !- Value Until Time 13
  20:00,                                  !- Time 14 {hh:mm}
  0.04,                                   !- Value Until Time 14
  21:00,                                  !- Time 15 {hh:mm}
  0.04,                                   !- Value Until Time 15
  24:00,                                  !- Time 16 {hh:mm}
  0;                                      !- Value Until Time 16

Schedule:Day:Interval,
  Medium Office_Bldg_Light Rule 3 Day Schedule, !- Name
  Fraction,                               !- Schedule Type Limits Name
  No,                                     !- Interpolate to Timestep
  05:00,                                  !- Time 1 {hh:mm}
  0.05,                                   !- Value Until Time 1
  07:00,                                  !- Time 2 {hh:mm}
  0.1,                                    !- Value Until Time 2
  08:00,                                  !- Time 3 {hh:mm}
  0.3,                                    !- Value Until Time 3
  17:00,                                  !- Time 4 {hh:mm}
  0.9,                                    !- Value Until Time 4
  18:00,                                  !- Time 5 {hh:mm}
  0.7,                                    !- Value Until Time 5
  20:00,                                  !- Time 6 {hh:mm}
  0.5,                                    !- Value Until Time 6
  22:00,                                  !- Time 7 {hh:mm}
  0.3,                                    !- Value Until Time 7
  23:00,                                  !- Time 8 {hh:mm}
  0.1,                                    !- Value Until Time 8
  24:00,                                  !- Time 9 {hh:mm}
  0.05;                                   !- Value Until Time 9

Schedule:Day:Interval,
  Medium Office_ClgSetp Rule 3 Day Schedule, !- Name
  Temperature 1,                          !- Schedule Type Limits Name
  No,                                     !- Interpolate to Timestep
  06:00,                                  !- Time 1 {hh:mm}
  26.7,                                   !- Value Until Time 1
  22:00,                                  !- Time 2 {hh:mm}
  24,                                     !- Value Until Time 2
  24:00,                                  !- Time 3 {hh:mm}
  26.7;                                   !- Value Until Time 3

Schedule:Day:Interval,
  Medium Office_Bldg_Light Summer Design Day, !- Name
  Fraction,                               !- Schedule Type Limits Name
  No,                                     !- Interpolate to Timestep
  24:00,                                  !- Time 1 {hh:mm}
  1;                                      !- Value Until Time 1

Schedule:Day:Interval,
  Always_Off Winter Design Day,           !- Name
  On/Off,                                 !- Schedule Type Limits Name
  No,                                     !- Interpolate to Timestep
  24:00,                                  !- Time 1 {hh:mm}
  0;                                      !- Value Until Time 1

Schedule:Day:Interval,
  Medium Office_BLDG_ELEVATORS Rule 1 Day Schedule, !- Name
  Fraction,                               !- Schedule Type Limits Name
  No,                                     !- Interpolate to Timestep
  24:00,                                  !- Time 1 {hh:mm}
  0;                                      !- Value Until Time 1

Schedule:Day:Interval,
  Always_On Rule 1 Day Schedule,          !- Name
  On/Off,                                 !- Schedule Type Limits Name
  No,                                     !- Interpolate to Timestep
  24:00,                                  !- Time 1 {hh:mm}
  1;                                      !- Value Until Time 1

Schedule:Day:Interval,
  Medium Office_BLDG_ELEVATORS Summer Design Day, !- Name
  Fraction,                               !- Schedule Type Limits Name
  No,                                     !- Interpolate to Timestep
  07:00,                                  !- Time 1 {hh:mm}
  0,                                      !- Value Until Time 1
  08:00,                                  !- Time 2 {hh:mm}
  0.35,                                   !- Value Until Time 2
  09:00,                                  !- Time 3 {hh:mm}
  0.69,                                   !- Value Until Time 3
  10:00,                                  !- Time 4 {hh:mm}
  0.43,                                   !- Value Until Time 4
  11:00,                                  !- Time 5 {hh:mm}
  0.37,                                   !- Value Until Time 5
  12:00,                                  !- Time 6 {hh:mm}
  0.43,                                   !- Value Until Time 6
  13:00,                                  !- Time 7 {hh:mm}
  0.58,                                   !- Value Until Time 7
  14:00,                                  !- Time 8 {hh:mm}
  0.48,                                   !- Value Until Time 8
  15:00,                                  !- Time 9 {hh:mm}
  0.37,                                   !- Value Until Time 9
  16:00,                                  !- Time 10 {hh:mm}
  0.37,                                   !- Value Until Time 10
  17:00,                                  !- Time 11 {hh:mm}
  0.46,                                   !- Value Until Time 11
  18:00,                                  !- Time 12 {hh:mm}
  0.62,                                   !- Value Until Time 12
  19:00,                                  !- Time 13 {hh:mm}
  0.12,                                   !- Value Until Time 13
  20:00,                                  !- Time 14 {hh:mm}
  0.04,                                   !- Value Until Time 14
  21:00,                                  !- Time 15 {hh:mm}
  0.04,                                   !- Value Until Time 15
  24:00,                                  !- Time 16 {hh:mm}
  0;                                      !- Value Until Time 16

Schedule:Day:Interval,
  Medium Office_Bldg_Light Rule 2 Day Schedule, !- Name
  Fraction,                               !- Schedule Type Limits Name
  No,                                     !- Interpolate to Timestep
  06:00,                                  !- Time 1 {hh:mm}
  0.05,                                   !- Value Until Time 1
  08:00,                                  !- Time 2 {hh:mm}
  0.1,                                    !- Value Until Time 2
  14:00,                                  !- Time 3 {hh:mm}
  0.5,                                    !- Value Until Time 3
  17:00,                                  !- Time 4 {hh:mm}
  0.15,                                   !- Value Until Time 4
  24:00,                                  !- Time 5 {hh:mm}
  0.05;                                   !- Value Until Time 5

Schedule:Day:Interval,
  Medium Office_ClgSetp Summer Design Day, !- Name
  Temperature 1,                          !- Schedule Type Limits Name
  No,                                     !- Interpolate to Timestep
  06:00,                                  !- Time 1 {hh:mm}
  26.7,                                   !- Value Until Time 1
  22:00,                                  !- Time 2 {hh:mm}
  24,                                     !- Value Until Time 2
  24:00,                                  !- Time 3 {hh:mm}
  26.7;                                   !- Value Until Time 3

Schedule:Day:Interval,
  Medium Office_Bldg_Occ Rule 1 Day Schedule, !- Name
  OnOff,                                  !- Schedule Type Limits Name
  No,                                     !- Interpolate to Timestep
  24:00,                                  !- Time 1 {hh:mm}
  0;                                      !- Value Until Time 1

Schedule:Day:Interval,
  Medium Office_Work_Eff Default Schedule, !- Name
  Fraction,                               !- Schedule Type Limits Name
  No,                                     !- Interpolate to Timestep
  24:00,                                  !- Time 1 {hh:mm}
  0;                                      !- Value Until Time 1

Schedule:Day:Interval,
  Medium Office_Work_Eff Summer Design Day, !- Name
  Fraction,                               !- Schedule Type Limits Name
  No,                                     !- Interpolate to Timestep
  24:00,                                  !- Time 1 {hh:mm}
  0;                                      !- Value Until Time 1

Schedule:Day:Interval,
  Medium Office_Bldg_Equip Rule 1 Day Schedule, !- Name
  Fraction,                               !- Schedule Type Limits Name
  No,                                     !- Interpolate to Timestep
  24:00,                                  !- Time 1 {hh:mm}
  0.3;                                    !- Value Until Time 1

Schedule:Day:Interval,
  Medium Office_HtgSetp Rule 2 Day Schedule, !- Name
  Temperature,                            !- Schedule Type Limits Name
  No,                                     !- Interpolate to Timestep
  06:00,                                  !- Time 1 {hh:mm}
  15.6,                                   !- Value Until Time 1
  18:00,                                  !- Time 2 {hh:mm}
  21,                                     !- Value Until Time 2
  24:00,                                  !- Time 3 {hh:mm}
  15.6;                                   !- Value Until Time 3

Schedule:Day:Interval,
  Medium Office_Bldg_Occ Summer Design Day 1, !- Name
  Fractional,                             !- Schedule Type Limits Name
  No,                                     !- Interpolate to Timestep
  06:00,                                  !- Time 1 {hh:mm}
  0,                                      !- Value Until Time 1
  22:00,                                  !- Time 2 {hh:mm}
  1,                                      !- Value Until Time 2
  24:00,                                  !- Time 3 {hh:mm}
  0.05;                                   !- Value Until Time 3

Schedule:Day:Interval,
  Medium Office_Bldg_Equip Summer Design Day, !- Name
  Fraction,                               !- Schedule Type Limits Name
  No,                                     !- Interpolate to Timestep
  24:00,                                  !- Time 1 {hh:mm}
  1;                                      !- Value Until Time 1

Schedule:Day:Interval,
  Medium Office_Bldg_Light Default Schedule, !- Name
  Fraction,                               !- Schedule Type Limits Name
  No,                                     !- Interpolate to Timestep
  24:00,                                  !- Time 1 {hh:mm}
  0;                                      !- Value Until Time 1

Schedule:Day:Interval,
  Medium Office_Clothing Rule 3 Day Schedule, !- Name
  Any Number,                             !- Schedule Type Limits Name
  No,                                     !- Interpolate to Timestep
  24:00,                                  !- Time 1 {hh:mm}
  1;                                      !- Value Until Time 1

Schedule:Day:Interval,
  Medium Office_Work_Eff Winter Design Day, !- Name
  Fraction,                               !- Schedule Type Limits Name
  No,                                     !- Interpolate to Timestep
  24:00,                                  !- Time 1 {hh:mm}
  0;                                      !- Value Until Time 1

Schedule:Day:Interval,
  Medium Office_Bldg_Occ Winter Design Day 1, !- Name
  Fractional,                             !- Schedule Type Limits Name
  No,                                     !- Interpolate to Timestep
  24:00,                                  !- Time 1 {hh:mm}
  0;                                      !- Value Until Time 1

Schedule:Day:Interval,
  Always_On Default Schedule,             !- Name
  On/Off,                                 !- Schedule Type Limits Name
  No,                                     !- Interpolate to Timestep
  24:00,                                  !- Time 1 {hh:mm}
  0;                                      !- Value Until Time 1

Schedule:Day:Interval,
  Always_On Winter Design Day,            !- Name
  On/Off,                                 !- Schedule Type Limits Name
  No,                                     !- Interpolate to Timestep
  24:00,                                  !- Time 1 {hh:mm}
  1;                                      !- Value Until Time 1

Schedule:Day:Interval,
  Medium Office_HtgSetp Rule 3 Day Schedule 1, !- Name
  Temperature 2,                          !- Schedule Type Limits Name
  No,                                     !- Interpolate to Timestep
  06:00,                                  !- Time 1 {hh:mm}
  15.6,                                   !- Value Until Time 1
  22:00,                                  !- Time 2 {hh:mm}
  21,                                     !- Value Until Time 2
  24:00,                                  !- Time 3 {hh:mm}
  15.6;                                   !- Value Until Time 3

Schedule:Day:Interval,
  Medium Office_Work_Eff Rule 1 Day Schedule, !- Name
  Fraction,                               !- Schedule Type Limits Name
  No,                                     !- Interpolate to Timestep
  24:00,                                  !- Time 1 {hh:mm}
  0;                                      !- Value Until Time 1

Schedule:Day:Interval,
  Always_On Summer Design Day,            !- Name
  On/Off,                                 !- Schedule Type Limits Name
  No,                                     !- Interpolate to Timestep
  24:00,                                  !- Time 1 {hh:mm}
  1;                                      !- Value Until Time 1

Schedule:Day:Interval,
  Always_Off Summer Design Day,           !- Name
  On/Off,                                 !- Schedule Type Limits Name
  No,                                     !- Interpolate to Timestep
  24:00,                                  !- Time 1 {hh:mm}
  0;                                      !- Value Until Time 1

Schedule:Day:Interval,
  Medium Office_HtgSetp Default Schedule 1, !- Name
  Temperature 2,                          !- Schedule Type Limits Name
  No,                                     !- Interpolate to Timestep
  24:00,                                  !- Time 1 {hh:mm}
  0;                                      !- Value Until Time 1

Schedule:Day:Interval,
  Medium Office_ClgSetp Rule 1 Day Schedule, !- Name
  Temperature 1,                          !- Schedule Type Limits Name
  No,                                     !- Interpolate to Timestep
  24:00,                                  !- Time 1 {hh:mm}
  26.7;                                   !- Value Until Time 1

Schedule:Day:Interval,
  Medium Office_Activity Summer Design Day, !- Name
  ActivityLevel,                          !- Schedule Type Limits Name
  No,                                     !- Interpolate to Timestep
  24:00,                                  !- Time 1 {hh:mm}
  120;                                    !- Value Until Time 1

Schedule:Day:Interval,
  Medium Office_HtgSetp Rule 1 Day Schedule 1, !- Name
  Temperature 2,                          !- Schedule Type Limits Name
  No,                                     !- Interpolate to Timestep
  24:00,                                  !- Time 1 {hh:mm}
  15.6;                                   !- Value Until Time 1

Schedule:Day:Interval,
  Medium Office_ClgSetp Default Schedule, !- Name
  Temperature 1,                          !- Schedule Type Limits Name
  No,                                     !- Interpolate to Timestep
  24:00,                                  !- Time 1 {hh:mm}
  0;                                      !- Value Until Time 1

Schedule:Day:Interval,
  Medium Office_Infil_Quarter_On Rule 2 Day Schedule, !- Name
  Fraction,                               !- Schedule Type Limits Name
  No,                                     !- Interpolate to Timestep
  06:00,                                  !- Time 1 {hh:mm}
  1,                                      !- Value Until Time 1
  18:00,                                  !- Time 2 {hh:mm}
  0.25,                                   !- Value Until Time 2
  24:00,                                  !- Time 3 {hh:mm}
  1;                                      !- Value Until Time 3

Schedule:Day:Interval,
  Medium Office_ClgSetp Winter Design Day, !- Name
  Temperature 1,                          !- Schedule Type Limits Name
  No,                                     !- Interpolate to Timestep
  24:00,                                  !- Time 1 {hh:mm}
  26.7;                                   !- Value Until Time 1

Schedule:Day:Interval,
  Medium Office_Bldg_Occ Rule 3 Day Schedule, !- Name
  OnOff,                                  !- Schedule Type Limits Name
  No,                                     !- Interpolate to Timestep
  06:00,                                  !- Time 1 {hh:mm}
  0,                                      !- Value Until Time 1
  07:00,                                  !- Time 2 {hh:mm}
  0.1,                                    !- Value Until Time 2
  08:00,                                  !- Time 3 {hh:mm}
  0.2,                                    !- Value Until Time 3
  12:00,                                  !- Time 4 {hh:mm}
  0.95,                                   !- Value Until Time 4
  13:00,                                  !- Time 5 {hh:mm}
  0.5,                                    !- Value Until Time 5
  17:00,                                  !- Time 6 {hh:mm}
  0.95,                                   !- Value Until Time 6
  18:00,                                  !- Time 7 {hh:mm}
  0.7,                                    !- Value Until Time 7
  20:00,                                  !- Time 8 {hh:mm}
  0.4,                                    !- Value Until Time 8
  22:00,                                  !- Time 9 {hh:mm}
  0.1,                                    !- Value Until Time 9
  24:00,                                  !- Time 10 {hh:mm}
  0.05;                                   !- Value Until Time 10

Schedule:Day:Interval,
  Medium Office_Bldg_Light Winter Design Day, !- Name
  Fraction,                               !- Schedule Type Limits Name
  No,                                     !- Interpolate to Timestep
  24:00,                                  !- Time 1 {hh:mm}
  0;                                      !- Value Until Time 1

Schedule:Day:Interval,
  Medium Office_HtgSetp Summer Design Day, !- Name
  Temperature,                            !- Schedule Type Limits Name
  No,                                     !- Interpolate to Timestep
  24:00,                                  !- Time 1 {hh:mm}
  15.6;                                   !- Value Until Time 1

Schedule:Day:Interval,
  Medium Office_HtgSetp Rule 2 Day Schedule 1, !- Name
  Temperature 2,                          !- Schedule Type Limits Name
  No,                                     !- Interpolate to Timestep
  06:00,                                  !- Time 1 {hh:mm}
  15.6,                                   !- Value Until Time 1
  18:00,                                  !- Time 2 {hh:mm}
  21,                                     !- Value Until Time 2
  24:00,                                  !- Time 3 {hh:mm}
  15.6;                                   !- Value Until Time 3

Schedule:Day:Interval,
  Always_Off Rule 1 Day Schedule,         !- Name
  On/Off,                                 !- Schedule Type Limits Name
  No,                                     !- Interpolate to Timestep
  24:00,                                  !- Time 1 {hh:mm}
  0;                                      !- Value Until Time 1

Schedule:Day:Interval,
  Medium Office_Bldg_Swh Summer Design Day, !- Name
  Fraction,                               !- Schedule Type Limits Name
  No,                                     !- Interpolate to Timestep
  05:00,                                  !- Time 1 {hh:mm}
  0.05,                                   !- Value Until Time 1
  06:00,                                  !- Time 2 {hh:mm}
  0.08,                                   !- Value Until Time 2
  07:00,                                  !- Time 3 {hh:mm}
  0.07,                                   !- Value Until Time 3
  08:00,                                  !- Time 4 {hh:mm}
  0.19,                                   !- Value Until Time 4
  09:00,                                  !- Time 5 {hh:mm}
  0.35,                                   !- Value Until Time 5
  10:00,                                  !- Time 6 {hh:mm}
  0.38,                                   !- Value Until Time 6
  11:00,                                  !- Time 7 {hh:mm}
  0.39,                                   !- Value Until Time 7
  12:00,                                  !- Time 8 {hh:mm}
  0.47,                                   !- Value Until Time 8
  13:00,                                  !- Time 9 {hh:mm}
  0.57,                                   !- Value Until Time 9
  14:00,                                  !- Time 10 {hh:mm}
  0.54,                                   !- Value Until Time 10
  15:00,                                  !- Time 11 {hh:mm}
  0.34,                                   !- Value Until Time 11
  16:00,                                  !- Time 12 {hh:mm}
  0.33,                                   !- Value Until Time 12
  17:00,                                  !- Time 13 {hh:mm}
  0.44,                                   !- Value Until Time 13
  18:00,                                  !- Time 14 {hh:mm}
  0.26,                                   !- Value Until Time 14
  19:00,                                  !- Time 15 {hh:mm}
  0.21,                                   !- Value Until Time 15
  20:00,                                  !- Time 16 {hh:mm}
  0.15,                                   !- Value Until Time 16
  21:00,                                  !- Time 17 {hh:mm}
  0.17,                                   !- Value Until Time 17
  22:00,                                  !- Time 18 {hh:mm}
  0.08,                                   !- Value Until Time 18
  24:00,                                  !- Time 19 {hh:mm}
  0.05;                                   !- Value Until Time 19

Schedule:Day:Interval,
  Medium Office_Bldg_Occ Rule 2 Day Schedule, !- Name
  OnOff,                                  !- Schedule Type Limits Name
  No,                                     !- Interpolate to Timestep
  06:00,                                  !- Time 1 {hh:mm}